* File: Neuron_submod.pex.netlist.pex
* Created: Sat Dec  6 15:38:05 2025
* Program "Calibre xACT"
* Version "v2024.4_39.16"
* Nominal Temperature: 25C
* Circuit Temperature: 27C
* 
.subckt PM_NEURON_SUBMOD_VSS 5 6 15 19 21 25 29 30 33 34 35 44 45 47 63 67 77
+ 107 204 225 304 312 321 333 335 342 354 365 392 401 426 435 448 454 460 466
+ 474 483 495 504 510 527 537 546 554 563 574 587 596 605 610 618 626 639 648
+ 654 660 673 688 701 716 745 746 752 753 754 755 756 757 758 759 760 761 762
+ 763 764 765 766 767 768 769 770 771 772 773 774 775 776 777 778 779 780 781
+ 782 783 784 785 786 787 788 789 790 791 792 793 794 795 796 797 798 799 800
+ 801 802 803 804 805 806 807 808 809 810 811 812 813 814 815 954 957 1102 1103
+ 1105 1106 1107 1108 1109 1110 1111 1112 1113 1114 1115 1116 1117 1118 1119
+ 1120 1121 1122 1123 1124 1125 1126 1127 1128 1129 1130 1131 1132 1133 1134
+ 1135 1136 1186 1338 1442 1589 1591 1617 1622 1623
c1086 1623 0 0.0036415f
c1087 1622 0 0.00103929f
c1088 1620 0 4.60641e-19
c1089 1617 0 6.833e-19
c1090 1591 0 6.43541e-19
c1091 1589 0 0.00119186f
c1092 1442 0 0.00946764f
c1093 1338 0 0.00436025f
c1094 1186 0 0.00237871f
c1095 1136 0 0.00533057f
c1096 1135 0 0.00159723f
c1097 1133 0 0.00914595f
c1098 1130 0 0.00182662f
c1099 1117 0 0.00409486f
c1100 1111 0 0.0125683f
c1101 1109 0 0.00186202f
c1102 815 0 0.0277117f
c1103 814 0 0.0280293f
c1104 813 0 0.00169668f
c1105 811 0 0.00158357f
c1106 807 0 0.0276799f
c1107 806 0 0.001539f
c1108 802 0 0.027762f
c1109 801 0 0.001539f
c1110 796 0 0.0276605f
c1111 795 0 0.00164654f
c1112 794 0 0.00164226f
c1113 788 0 0.0276698f
c1114 787 0 0.0274466f
c1115 786 0 0.0275815f
c1116 784 0 0.0275788f
c1117 781 0 0.00153824f
c1118 776 0 0.00156226f
c1119 774 0 0.0275999f
c1120 773 0 0.00165336f
c1121 772 0 0.00154773f
c1122 765 0 0.001539f
c1123 764 0 0.0016193f
c1124 759 0 0.0275676f
c1125 758 0 0.0276167f
c1126 757 0 0.001539f
c1127 756 0 0.00155191f
c1128 746 0 0.00514576f
c1129 716 0 0.027825f
c1130 701 0 0.0310886f
c1131 688 0 0.0275632f
c1132 673 0 0.0307754f
c1133 660 0 0.0275733f
c1134 654 0 0.00261621f
c1135 648 0 0.027444f
c1136 639 0 0.027762f
c1137 626 0 0.00296025f
c1138 618 0 0.00132594f
c1139 610 0 0.00140581f
c1140 605 0 0.0276244f
c1141 596 0 0.027591f
c1142 587 0 0.0276442f
c1143 574 0 0.00226152f
c1144 563 0 0.00485122f
c1145 554 0 0.0301499f
c1146 546 0 0.00235408f
c1147 537 0 0.0302193f
c1148 527 0 0.0298822f
c1149 510 0 0.0303364f
c1150 504 0 0.0276177f
c1151 495 0 0.0278798f
c1152 483 0 0.0011699f
c1153 474 0 0.00284773f
c1154 466 0 0.00112146f
c1155 460 0 0.0274567f
c1156 454 0 0.00345828f
c1157 448 0 0.0275184f
c1158 435 0 0.031228f
c1159 426 0 0.0316142f
c1160 401 0 0.0304866f
c1161 392 0 0.0303092f
c1162 365 0 0.029554f
c1163 354 0 0.0304269f
c1164 342 0 0.0028133f
c1165 335 0 0.0626376f
c1166 333 0 0.0023004f
c1167 321 0 0.00211834f
c1168 312 0 0.102952f
c1169 304 0 0.00247338f
c1170 225 0 0.00919367f
c1171 204 0 9.53272e-19
c1172 107 0 0.00108679f
c1173 77 0 0.0895096f
c1174 67 0 0.0022889f
c1175 63 0 0.00118288f
c1176 47 0 0.00114633f
c1177 45 0 0.101253f
c1178 44 0 0.00277266f
c1179 35 0 0.00299693f
c1180 34 0 0.00244189f
c1181 33 0 0.124814f
c1182 30 0 0.00241911f
c1183 29 0 0.00274237f
c1184 25 0 0.0581993f
c1185 21 0 0.00150201f
c1186 19 0 0.114595f
c1187 15 0 0.061275f
c1188 6 0 0.00300001f
c1189 5 0 0.00297943f
r1190 1621 1622 0.613082
r1191 1617 1618 7.46207
r1192 1615 1623 0.202133
r1193 1615 1618 5.36336
r1194 1610 1611 2.09871
r1195 1609 1613 8.39483
r1196 1609 1611 2.09871
r1197 1606 1607 9.56078
r1198 1605 1606 6.06293
r1199 1604 1610 8.39483
r1200 1604 1607 1.16595
r1201 1601 1602 2.09871
r1202 1600 1605 8.39483
r1203 1600 1602 2.09871
r1204 1597 1601 8.39483
r1205 1597 1598 1.16595
r1206 1595 1620 0.777784
r1207 1595 1598 5.36336
r1208 1591 1623 0.777784
r1209 1591 1622 12.5922
r1210 1589 1621 6.29612
r1211 1587 1620 0.202133
r1212 1587 1589 4.19742
r1213 1584 1585 10.4935
r1214 1583 1584 0.932759
r1215 1579 1580 9.56078
r1216 1578 1583 9.56078
r1217 1578 1580 1.16595
r1218 1575 1576 10.4935
r1219 1574 1575 2.09871
r1220 1570 1571 9.0944
r1221 1569 1570 4.19742
r1222 1568 1574 8.39483
r1223 1568 1571 1.16595
r1224 1563 1564 11.6595
r1225 1562 1563 4.19742
r1226 1561 1562 27.2832
r1227 1560 1561 2.09871
r1228 1559 1560 5.13017
r1229 1558 1559 11.8927
r1230 1557 1558 5.82974
r1231 1556 1557 9.56078
r1232 1555 1566 1.16595
r1233 1555 1564 9.32759
r1234 1551 1552 2.09871
r1235 1550 1551 10.4935
r1236 1549 1556 1.16595
r1237 1549 1552 8.39483
r1238 1539 1540 0.932759
r1239 1538 1539 11.6595
r1240 1537 1538 4.19742
r1241 1536 1537 27.2832
r1242 1535 1536 2.09871
r1243 1534 1535 5.13017
r1244 1533 1534 11.8927
r1245 1532 1533 5.82974
r1246 1531 1543 1.16595
r1247 1531 1540 8.39483
r1248 1528 1529 6.29612
r1249 1527 1528 0.932759
r1250 1523 1524 2.09871
r1251 1522 1523 10.4935
r1252 1521 1527 1.16595
r1253 1521 1524 8.39483
r1254 1513 1514 0.932759
r1255 1512 1513 5.36336
r1256 1511 1512 6.29612
r1257 1510 1511 4.19742
r1258 1509 1510 6.06293
r1259 1508 1509 4.4306
r1260 1507 1508 16.7897
r1261 1506 1507 2.09871
r1262 1505 1506 5.13017
r1263 1504 1505 11.8927
r1264 1503 1517 1.16595
r1265 1503 1514 8.39483
r1266 1499 1500 4.19742
r1267 1498 1504 3.96423
r1268 1498 1500 1.86552
r1269 1495 1496 6.29612
r1270 1494 1495 2.09871
r1271 1493 1494 0.932759
r1272 1492 1493 0.23319
r1273 1491 1492 9.32759
r1274 1490 1499 6.52931
r1275 1490 1496 2.09871
r1276 1485 1486 10.4935
r1277 1484 1485 2.09871
r1278 1480 1481 9.56078
r1279 1479 1484 8.39483
r1280 1479 1481 1.16595
r1281 1474 1475 0.932759
r1282 1473 1474 11.6595
r1283 1472 1473 4.19742
r1284 1471 1472 27.2832
r1285 1470 1471 2.09871
r1286 1469 1470 5.13017
r1287 1468 1469 11.8927
r1288 1467 1468 5.82974
r1289 1466 1467 9.56078
r1290 1465 1477 1.16595
r1291 1465 1475 8.39483
r1292 1461 1462 2.09871
r1293 1460 1461 10.4935
r1294 1459 1466 1.16595
r1295 1459 1462 8.39483
r1296 1455 1456 6.29612
r1297 1453 1455 14.691
r1298 1451 1453 25.1845
r1299 1448 1449 8.86121
r1300 1447 1451 12.5922
r1301 1447 1449 2.09871
r1302 1444 1445 6.29612
r1303 1442 1444 39.8754
r1304 1439 1440 9.32759
r1305 1438 1439 0.23319
r1306 1437 1442 12.5922
r1307 1437 1440 2.09871
r1308 1434 1435 11.8927
r1309 1433 1434 9.56078
r1310 1430 1431 2.09871
r1311 1429 1433 1.16595
r1312 1429 1431 8.39483
r1313 1426 1427 4.19742
r1314 1425 1426 6.06293
r1315 1424 1425 9.56078
r1316 1423 1430 2.09871
r1317 1423 1427 4.19742
r1318 1420 1421 0.932759
r1319 1419 1420 11.6595
r1320 1418 1419 4.19742
r1321 1417 1418 27.2832
r1322 1416 1417 2.09871
r1323 1415 1416 5.13017
r1324 1414 1415 11.8927
r1325 1413 1414 5.82974
r1326 1412 1413 9.56078
r1327 1411 1424 1.16595
r1328 1411 1421 8.39483
r1329 1404 1412 1.16595
r1330 1399 1400 6.7625
r1331 1398 1399 13.2918
r1332 1397 1398 7.22888
r1333 1396 1397 20.9871
r1334 1395 1396 1.86552
r1335 1394 1402 33.5793
r1336 1394 1400 14.691
r1337 1388 1389 0.932759
r1338 1387 1388 5.36336
r1339 1386 1387 6.29612
r1340 1385 1386 4.19742
r1341 1384 1385 10.9599
r1342 1383 1392 1.16595
r1343 1383 1389 8.39483
r1344 1380 1381 6.29612
r1345 1379 1380 4.19742
r1346 1378 1379 2.09871
r1347 1377 1378 5.13017
r1348 1374 1375 5.82974
r1349 1373 1374 9.56078
r1350 1372 1377 3.26466
r1351 1372 1375 8.62802
r1352 1369 1370 2.09871
r1353 1368 1373 1.16595
r1354 1368 1370 8.39483
r1355 1365 1366 6.29612
r1356 1364 1369 2.09871
r1357 1364 1366 2.09871
r1358 1358 1359 2.09871
r1359 1357 1358 5.13017
r1360 1354 1355 2.09871
r1361 1353 1354 5.13017
r1362 1352 1357 1.16595
r1363 1352 1355 2.09871
r1364 1349 1350 7.22888
r1365 1348 1349 2.3319
r1366 1347 1348 1.86552
r1367 1346 1347 4.19742
r1368 1345 1346 6.29612
r1369 1344 1353 3.26466
r1370 1344 1350 1.16595
r1371 1341 1342 2.09871
r1372 1340 1341 5.13017
r1373 1339 1340 11.8927
r1374 1338 1345 14.691
r1375 1338 1342 2.09871
r1376 1335 1336 9.56078
r1377 1334 1339 3.96423
r1378 1334 1336 1.86552
r1379 1331 1332 6.29612
r1380 1330 1331 2.09871
r1381 1329 1330 0.932759
r1382 1328 1329 0.23319
r1383 1327 1328 9.32759
r1384 1326 1335 1.16595
r1385 1326 1332 2.09871
r1386 1320 1321 0.932759
r1387 1319 1320 1.16595
r1388 1318 1323 8.39483
r1389 1318 1321 2.09871
r1390 1315 1316 9.56078
r1391 1314 1319 8.39483
r1392 1314 1316 1.16595
r1393 1311 1312 10.4935
r1394 1310 1311 2.09871
r1395 1306 1307 9.32759
r1396 1305 1306 4.19742
r1397 1304 1310 8.39483
r1398 1304 1307 1.16595
r1399 1299 1300 0.932759
r1400 1298 1299 11.6595
r1401 1297 1298 4.19742
r1402 1296 1302 0.932759
r1403 1296 1300 8.39483
r1404 1293 1294 6.29612
r1405 1290 1291 2.09871
r1406 1289 1290 5.13017
r1407 1288 1289 11.8927
r1408 1287 1293 14.691
r1409 1287 1291 2.09871
r1410 1284 1285 9.56078
r1411 1283 1288 3.96423
r1412 1283 1285 1.86552
r1413 1279 1280 6.29612
r1414 1278 1279 0.23319
r1415 1277 1278 1.86552
r1416 1276 1277 3.96423
r1417 1275 1284 1.16595
r1418 1275 1280 2.09871
r1419 1269 1271 1.16595
r1420 1266 1267 4.19742
r1421 1265 1266 0.932759
r1422 1264 1265 5.36336
r1423 1263 1264 2.09871
r1424 1262 1263 4.19742
r1425 1258 1259 9.56078
r1426 1257 1258 6.06293
r1427 1256 1257 6.29612
r1428 1255 1256 4.19742
r1429 1254 1255 2.09871
r1430 1253 1254 5.13017
r1431 1252 1253 11.8927
r1432 1251 1252 5.82974
r1433 1250 1251 9.56078
r1434 1249 1262 4.19742
r1435 1249 1259 1.16595
r1436 1246 1247 2.09871
r1437 1245 1250 1.16595
r1438 1245 1247 8.39483
r1439 1242 1243 6.29612
r1440 1241 1246 2.09871
r1441 1241 1243 2.09871
r1442 1238 1239 0.23319
r1443 1235 1236 6.29612
r1444 1234 1235 4.66379
r1445 1233 1234 11.8927
r1446 1232 1233 9.56078
r1447 1229 1230 2.09871
r1448 1228 1232 1.16595
r1449 1228 1230 8.39483
r1450 1224 1225 4.19742
r1451 1223 1224 6.06293
r1452 1222 1223 0.23319
r1453 1221 1222 9.32759
r1454 1220 1229 2.09871
r1455 1220 1225 4.19742
r1456 1217 1218 4.19742
r1457 1216 1217 0.932759
r1458 1215 1221 1.16595
r1459 1215 1218 4.19742
r1460 1212 1213 2.09871
r1461 1211 1212 4.19742
r1462 1210 1216 3.26466
r1463 1210 1213 2.09871
r1464 1207 1208 9.56078
r1465 1206 1207 6.06293
r1466 1205 1206 6.29612
r1467 1204 1205 4.19742
r1468 1203 1204 2.09871
r1469 1202 1203 5.13017
r1470 1201 1202 11.8927
r1471 1200 1201 5.82974
r1472 1199 1200 9.56078
r1473 1198 1211 4.19742
r1474 1198 1208 1.16595
r1475 1188 1199 1.16595
r1476 1186 1620 0.777784
r1477 1186 1402 6.06293
r1478 1179 1180 0.932759
r1479 1178 1179 11.6595
r1480 1177 1178 4.19742
r1481 1176 1177 27.2832
r1482 1175 1176 2.09871
r1483 1174 1175 5.13017
r1484 1173 1174 11.8927
r1485 1172 1173 5.82974
r1486 1171 1172 9.56078
r1487 1170 1183 1.16595
r1488 1170 1180 8.39483
r1489 1166 1167 2.09871
r1490 1165 1166 10.4935
r1491 1164 1171 1.16595
r1492 1164 1167 8.39483
r1493 1160 1161 6.29612
r1494 1156 1157 14.691
r1495 1155 1160 39.8754
r1496 1155 1157 14.691
r1497 1152 1153 2.09871
r1498 1151 1156 8.39483
r1499 1151 1153 2.09871
r1500 1148 1149 9.56078
r1501 1147 1148 6.06293
r1502 1146 1147 6.29612
r1503 1145 1152 8.39483
r1504 1145 1149 1.16595
r1505 1138 1146 39.8754
r1506 1136 1613 2.09871
r1507 1135 1543 9.0944
r1508 1134 1395 0.466379
r1509 1134 1392 9.0944
r1510 1133 1585 2.09871
r1511 1132 1384 4.89698
r1512 1132 1381 0.932759
r1513 1131 1579 3.96423
r1514 1131 1576 2.09871
r1515 1130 1532 1.39914
r1516 1130 1529 0.932759
r1517 1129 1522 2.09871
r1518 1129 1519 3.96423
r1519 1128 1365 2.09871
r1520 1128 1362 0.932759
r1521 1127 1362 3.26466
r1522 1126 1519 0.466379
r1523 1126 1517 9.0944
r1524 1125 1127 0.23319
r1525 1125 1359 1.86552
r1526 1124 1569 0.466379
r1527 1124 1566 9.0944
r1528 1123 1491 2.09871
r1529 1123 1488 2.09871
r1530 1122 1327 2.09871
r1531 1121 1550 2.09871
r1532 1120 1488 2.09871
r1533 1120 1486 2.09871
r1534 1119 1122 4.19742
r1535 1119 1323 2.09871
r1536 1118 1315 3.96423
r1537 1118 1312 2.09871
r1538 1117 1480 4.19742
r1539 1117 1477 9.0944
r1540 1116 1305 0.23319
r1541 1116 1302 9.32759
r1542 1115 1297 3.26466
r1543 1115 1294 0.932759
r1544 1114 1460 2.09871
r1545 1113 1114 5.36336
r1546 1113 1456 0.932759
r1547 1112 1276 0.466379
r1548 1112 1273 6.06293
r1549 1111 1183 9.0944
r1550 1110 1273 2.09871
r1551 1110 1271 0.932759
r1552 1109 1269 2.09871
r1553 1109 1267 2.09871
r1554 1108 1448 4.89698
r1555 1108 1445 0.932759
r1556 1107 1242 2.09871
r1557 1107 1239 0.932759
r1558 1106 1165 2.09871
r1559 1105 1438 2.3319
r1560 1105 1435 13.7582
r1561 1103 1238 2.3319
r1562 1103 1236 2.79828
r1563 1102 1106 3.49785
r1564 1102 1161 2.79828
r1565 742 815 0.277778
r1566 742 743 15.9139
r1567 740 1604 96.0901
r1568 740 743 29.1755
r1569 734 735 15.9139
r1570 733 814 0.277778
r1571 733 735 15.9139
r1572 731 1597 96.0901
r1573 731 734 13.2616
r1574 725 813 0.314815
r1575 725 812 0.314815
r1576 725 726 31.8278
r1577 723 1394 96.0901
r1578 723 726 13.2616
r1579 717 718 15.9139
r1580 716 810 0.277778
r1581 716 718 15.9139
r1582 714 1531 96.0901
r1583 714 717 13.2616
r1584 708 811 0.314815
r1585 708 809 0.314815
r1586 708 709 31.8278
r1587 705 706 15.9139
r1588 701 808 0.277778
r1589 701 705 15.9139
r1590 697 807 0.277778
r1591 697 698 15.9139
r1592 695 1578 96.0901
r1593 695 698 29.1755
r1594 689 690 15.9139
r1595 688 805 0.277778
r1596 688 690 15.9139
r1597 686 1521 96.0901
r1598 686 689 13.2616
r1599 680 806 0.314815
r1600 680 804 0.314815
r1601 680 681 31.2384
r1602 677 678 15.9139
r1603 673 803 0.277778
r1604 673 677 15.9139
r1605 669 802 0.277778
r1606 669 670 15.9139
r1607 667 1568 96.0901
r1608 667 670 29.1755
r1609 661 662 15.9139
r1610 660 800 0.277778
r1611 660 662 15.9139
r1612 654 801 0.314815
r1613 654 799 0.314815
r1614 654 658 31.2384
r1615 650 651 15.3245
r1616 649 650 0.589404
r1617 648 798 0.277778
r1618 648 651 15.9139
r1619 646 1352 96.0901
r1620 646 649 13.2616
r1621 640 641 15.9139
r1622 639 797 0.277778
r1623 639 641 15.9139
r1624 637 1555 96.0901
r1625 637 640 13.2616
r1626 630 631 15.3245
r1627 629 1344 96.0901
r1628 629 631 13.851
r1629 626 796 0.277778
r1630 626 630 15.9139
r1631 621 1498 96.0901
r1632 621 622 13.851
r1633 618 795 0.314815
r1634 618 793 0.314815
r1635 618 622 31.2384
r1636 613 1334 96.0901
r1637 613 614 13.851
r1638 610 794 0.314815
r1639 610 792 0.314815
r1640 610 614 31.2384
r1641 606 607 15.9139
r1642 605 791 0.277778
r1643 605 607 15.9139
r1644 603 1490 96.0901
r1645 603 606 13.2616
r1646 597 598 15.9139
r1647 596 790 0.277778
r1648 596 598 15.9139
r1649 594 1326 96.0901
r1650 594 597 13.2616
r1651 588 589 15.9139
r1652 587 789 0.277778
r1653 587 589 15.9139
r1654 585 1549 96.0901
r1655 585 588 13.2616
r1656 578 579 15.3245
r1657 577 1479 96.0901
r1658 577 579 13.851
r1659 574 788 0.277778
r1660 574 578 15.9139
r1661 570 787 0.277778
r1662 570 571 15.9139
r1663 567 568 15.3245
r1664 563 786 0.277778
r1665 563 567 15.9139
r1666 558 559 15.9139
r1667 557 1465 96.0901
r1668 557 559 13.2616
r1669 554 785 0.277778
r1670 554 558 15.9139
r1671 549 1304 96.0901
r1672 549 550 29.1755
r1673 546 784 0.277778
r1674 546 550 15.9139
r1675 541 542 15.9139
r1676 540 1296 96.0901
r1677 540 542 13.2616
r1678 537 783 0.277778
r1679 537 541 15.9139
r1680 532 533 0.589404
r1681 531 532 15.3245
r1682 530 1459 96.0901
r1683 530 533 13.2616
r1684 527 782 0.277778
r1685 527 531 15.9139
r1686 523 781 0.314815
r1687 523 780 0.314815
r1688 523 524 31.2384
r1689 521 1283 96.0901
r1690 521 524 13.851
r1691 514 515 15.9139
r1692 513 1275 96.0901
r1693 513 515 13.2616
r1694 510 779 0.277778
r1695 510 514 15.9139
r1696 506 507 15.3245
r1697 505 506 0.589404
r1698 504 778 0.277778
r1699 504 507 15.9139
r1700 502 1269 96.0901
r1701 502 505 13.2616
r1702 496 497 15.9139
r1703 495 777 0.277778
r1704 495 497 15.9139
r1705 493 1170 96.0901
r1706 493 496 13.2616
r1707 486 1451 96.0901
r1708 486 487 13.851
r1709 483 776 0.314815
r1710 483 775 0.314815
r1711 483 487 31.2384
r1712 478 479 15.3245
r1713 477 1249 96.0901
r1714 477 479 13.851
r1715 474 774 0.277778
r1716 474 478 15.9139
r1717 469 1442 96.0901
r1718 469 470 13.851
r1719 466 773 0.314815
r1720 466 771 0.314815
r1721 466 470 31.2384
r1722 462 463 15.3245
r1723 461 462 0.589404
r1724 460 770 0.277778
r1725 460 463 15.9139
r1726 454 772 0.314815
r1727 454 769 0.314815
r1728 454 458 31.2384
r1729 450 451 15.3245
r1730 449 450 0.589404
r1731 448 768 0.277778
r1732 448 451 15.9139
r1733 446 1164 96.0901
r1734 446 449 13.2616
r1735 439 440 15.3245
r1736 438 1429 96.0901
r1737 438 440 13.851
r1738 435 767 0.277778
r1739 435 439 15.9139
r1740 430 431 15.3245
r1741 429 1228 96.0901
r1742 429 431 13.851
r1743 426 766 0.277778
r1744 426 430 15.9139
r1745 422 765 0.314815
r1746 422 763 0.314815
r1747 422 423 31.2384
r1748 420 1220 96.0901
r1749 420 423 13.851
r1750 414 764 0.314815
r1751 414 762 0.314815
r1752 414 415 31.2384
r1753 412 1155 96.0901
r1754 412 415 13.851
r1755 405 406 15.9139
r1756 404 1411 96.0901
r1757 404 406 13.2616
r1758 401 761 0.277778
r1759 401 405 15.9139
r1760 396 397 15.9139
r1761 395 1215 96.0901
r1762 395 397 13.2616
r1763 392 760 0.277778
r1764 392 396 15.9139
r1765 388 389 15.3245
r1766 387 759 0.277778
r1767 387 389 15.9139
r1768 385 1198 96.0901
r1769 385 388 13.851
r1770 379 380 15.3245
r1771 378 758 0.277778
r1772 378 380 15.9139
r1773 376 1145 96.0901
r1774 376 379 13.851
r1775 369 370 15.9139
r1776 368 1404 96.0901
r1777 368 370 13.2616
r1778 365 755 0.277778
r1779 365 369 15.9139
r1780 361 757 0.314815
r1781 361 754 0.314815
r1782 361 362 31.2384
r1783 358 359 15.9139
r1784 354 753 0.277778
r1785 354 358 15.9139
r1786 350 756 0.314815
r1787 350 752 0.314815
r1788 350 351 31.2384
r1789 348 1138 96.0901
r1790 348 351 13.851
r1791 342 1617 19.38
r1792 342 745 24.1072
r1793 342 746 19.2857
r1794 336 337 51.2835
r1795 335 1578 14.4844
r1796 335 695 0.294702
r1797 335 337 289.053
r1798 333 1568 9.65625
r1799 333 667 0.294702
r1800 333 336 37.2971
r1801 330 331 51.2835
r1802 329 330 326.35
r1803 328 329 51.2835
r1804 327 328 74.5942
r1805 326 327 51.2835
r1806 321 1549 28.9688
r1807 321 585 0.294702
r1808 321 326 289.053
r1809 317 318 51.2835
r1810 316 317 326.35
r1811 315 316 51.2835
r1812 314 315 74.5942
r1813 313 314 51.2835
r1814 312 1531 28.9688
r1815 312 714 0.294702
r1816 312 318 37.2971
r1817 309 310 51.2835
r1818 308 309 74.5942
r1819 307 308 51.2835
r1820 306 307 74.5942
r1821 305 306 51.2835
r1822 304 1521 28.9688
r1823 304 686 0.294702
r1824 304 313 289.053
r1825 304 310 37.2971
r1826 300 301 51.2835
r1827 299 300 326.35
r1828 298 299 51.2835
r1829 297 298 74.5942
r1830 296 297 51.2835
r1831 295 296 74.5942
r1832 294 295 51.2835
r1833 290 291 51.2835
r1834 287 288 51.2835
r1835 286 287 163.175
r1836 285 286 163.175
r1837 284 285 51.2835
r1838 279 280 51.2835
r1839 278 279 326.35
r1840 277 278 51.2835
r1841 276 277 74.5942
r1842 275 276 51.2835
r1843 271 272 51.2835
r1844 270 271 326.35
r1845 269 270 51.2835
r1846 266 267 51.2835
r1847 265 266 74.5942
r1848 264 265 51.2835
r1849 263 1453 28.9688
r1850 263 269 37.2971
r1851 263 267 37.2971
r1852 260 261 51.2835
r1853 257 258 51.2835
r1854 256 257 74.5942
r1855 255 256 51.2835
r1856 254 255 74.5942
r1857 253 254 51.2835
r1858 252 1447 9.65625
r1859 252 260 37.2971
r1860 252 258 289.053
r1861 249 250 51.2835
r1862 247 1437 9.65625
r1863 247 249 37.2971
r1864 244 245 51.2835
r1865 242 1423 9.65625
r1866 242 244 37.2971
r1867 239 240 51.2835
r1868 238 239 326.35
r1869 237 238 51.2835
r1870 236 237 74.5942
r1871 235 236 51.2835
r1872 226 227 51.2835
r1873 225 1609 28.9688
r1874 225 227 37.2971
r1875 221 222 51.2835
r1876 220 1600 9.65625
r1877 220 222 37.2971
r1878 217 218 51.2835
r1879 216 217 74.5942
r1880 215 216 51.2835
r1881 212 213 51.2835
r1882 211 212 74.5942
r1883 210 211 51.2835
r1884 209 210 326.35
r1885 208 209 51.2835
r1886 207 208 37.2971
r1887 206 207 37.2971
r1888 205 206 51.2835
r1889 204 1394 28.9688
r1890 204 723 0.294702
r1891 204 215 37.2971
r1892 204 213 37.2971
r1893 200 201 51.2835
r1894 199 200 74.5942
r1895 198 199 51.2835
r1896 197 198 200.472
r1897 196 197 51.2835
r1898 195 196 74.5942
r1899 194 195 51.2835
r1900 191 192 51.2835
r1901 190 191 74.5942
r1902 189 190 51.2835
r1903 188 1372 28.9688
r1904 188 194 37.2971
r1905 188 192 37.2971
r1906 185 186 51.2835
r1907 183 1364 9.65625
r1908 183 185 37.2971
r1909 180 181 51.2835
r1910 177 178 51.2835
r1911 174 175 51.2835
r1912 173 174 74.5942
r1913 172 173 51.2835
r1914 171 1338 9.65625
r1915 171 177 37.2971
r1916 171 175 37.2971
r1917 168 169 51.2835
r1918 165 166 51.2835
r1919 162 163 51.2835
r1920 161 1318 9.65625
r1921 161 165 289.053
r1922 161 163 37.2971
r1923 158 159 51.2835
r1924 153 154 51.2835
r1925 152 153 326.35
r1926 151 152 51.2835
r1927 148 149 51.2835
r1928 147 148 74.5942
r1929 146 147 51.2835
r1930 145 1287 28.9688
r1931 145 151 37.2971
r1932 145 149 37.2971
r1933 142 143 51.2835
r1934 138 139 51.2835
r1935 135 136 51.2835
r1936 134 135 74.5942
r1937 133 134 51.2835
r1938 129 130 51.2835
r1939 128 129 74.5942
r1940 127 128 51.2835
r1941 126 127 74.5942
r1942 125 126 51.2835
r1943 124 125 74.5942
r1944 123 124 51.2835
r1945 120 121 51.2835
r1946 117 118 51.2835
r1947 116 117 74.5942
r1948 115 116 51.2835
r1949 114 1241 9.65625
r1950 114 120 37.2971
r1951 114 118 289.053
r1952 111 112 51.2835
r1953 108 109 51.2835
r1954 107 1220 9.65625
r1955 107 420 0.294702
r1956 107 111 37.2971
r1957 107 109 37.2971
r1958 104 105 51.2835
r1959 101 102 51.2835
r1960 100 1210 9.65625
r1961 100 104 37.2971
r1962 100 102 37.2971
r1963 97 98 51.2835
r1964 96 97 74.5942
r1965 95 96 51.2835
r1966 94 95 74.5942
r1967 93 94 51.2835
r1968 92 93 74.5942
r1969 91 92 51.2835
r1970 82 83 51.2835
r1971 81 82 326.35
r1972 80 81 51.2835
r1973 79 80 74.5942
r1974 78 79 51.2835
r1975 77 1170 28.9688
r1976 77 493 0.294702
r1977 77 83 37.2971
r1978 74 75 51.2835
r1979 73 74 326.35
r1980 72 73 51.2835
r1981 71 72 74.5942
r1982 70 71 51.2835
r1983 69 70 74.5942
r1984 68 69 51.2835
r1985 67 1164 28.9688
r1986 67 446 0.294702
r1987 67 78 289.053
r1988 67 75 37.2971
r1989 64 65 51.2835
r1990 63 1155 14.4844
r1991 63 412 0.294702
r1992 63 68 37.2971
r1993 63 65 37.2971
r1994 60 61 51.2835
r1995 59 1151 9.65625
r1996 59 64 289.053
r1997 59 61 37.2971
r1998 56 57 51.2835
r1999 55 56 74.5942
r2000 54 55 51.2835
r2001 53 54 74.5942
r2002 52 53 51.2835
r2003 47 1138 9.65625
r2004 47 348 0.294702
r2005 47 52 37.2971
r2006 45 740 0.294702
r2007 45 226 37.2971
r2008 45 220 251.755
r2009 44 731 0.294702
r2010 44 221 37.2971
r2011 44 218 289.053
r2012 41 1383 19.38
r2013 41 1383 28.9688
r2014 41 709 15.9139
r2015 41 706 15.9139
r2016 41 205 37.2971
r2017 41 201 37.2971
r2018 38 1368 19.38
r2019 38 681 16.5033
r2020 38 678 15.9139
r2021 38 189 37.2971
r2022 38 186 37.2971
r2023 36 1503 19.38
r2024 36 1503 9.65625
r2025 36 661 15.9139
r2026 36 658 16.5033
r2027 36 305 37.2971
r2028 36 301 37.2971
r2029 35 646 0.294702
r2030 35 183 251.755
r2031 35 181 37.2971
r2032 34 637 0.294702
r2033 34 333 251.755
r2034 34 331 37.2971
r2035 33 629 0.294702
r2036 33 180 37.2971
r2037 33 178 289.053
r2038 32 1498 9.65625
r2039 32 621 0.294702
r2040 32 294 37.2971
r2041 32 291 37.2971
r2042 31 613 0.294702
r2043 31 172 37.2971
r2044 31 169 37.2971
r2045 30 603 0.294702
r2046 30 290 37.2971
r2047 30 288 37.2971
r2048 29 594 0.294702
r2049 29 168 37.2971
r2050 29 166 37.2971
r2051 27 1479 9.65625
r2052 27 577 0.294702
r2053 27 284 37.2971
r2054 26 1314 19.38
r2055 26 571 31.8278
r2056 26 568 16.5033
r2057 26 162 37.2971
r2058 26 159 289.053
r2059 25 557 0.294702
r2060 25 27 251.755
r2061 25 280 37.2971
r2062 24 1304 9.65625
r2063 24 549 0.294702
r2064 24 158 37.2971
r2065 23 540 0.294702
r2066 23 24 251.755
r2067 23 154 37.2971
r2068 22 1459 28.9688
r2069 22 530 0.294702
r2070 22 275 289.053
r2071 22 272 37.2971
r2072 21 521 0.294702
r2073 21 146 37.2971
r2074 21 143 37.2971
r2075 20 1275 9.65625
r2076 20 513 0.294702
r2077 20 142 37.2971
r2078 20 139 37.2971
r2079 19 502 0.294702
r2080 19 138 163.175
r2081 19 136 37.2971
r2082 17 486 0.294702
r2083 17 264 37.2971
r2084 17 261 37.2971
r2085 16 1249 9.65625
r2086 16 477 0.294702
r2087 16 133 37.2971
r2088 16 130 163.175
r2089 15 469 0.294702
r2090 15 253 37.2971
r2091 15 250 37.2971
r2092 14 1245 19.38
r2093 14 461 15.9139
r2094 14 458 16.5033
r2095 14 123 37.2971
r2096 14 121 37.2971
r2097 12 438 0.294702
r2098 12 247 503.511
r2099 12 245 37.2971
r2100 11 429 0.294702
r2101 11 115 37.2971
r2102 11 112 37.2971
r2103 8 404 0.294702
r2104 8 242 251.755
r2105 8 240 37.2971
r2106 7 395 0.294702
r2107 7 108 163.175
r2108 7 105 37.2971
r2109 6 385 0.294702
r2110 6 101 37.2971
r2111 6 98 163.175
r2112 5 376 0.294702
r2113 5 60 37.2971
r2114 5 57 289.053
r2115 4 1404 28.9688
r2116 4 368 0.294702
r2117 4 235 289.053
r2118 3 1188 19.38
r2119 3 1188 9.65625
r2120 3 362 16.5033
r2121 3 359 15.9139
r2122 3 91 37.2971
.ends

.subckt PM_NEURON_SUBMOD_X_1<0> 4 8 11 12 13 23 30
c36 30 0 0.00218336f
c37 13 0 2.71841e-20
c38 12 0 0.0199347f
c39 8 0 0.00182661f
c40 4 0 0.00190051f
r41 27 30 12.5922
r42 27 28 8.39483
r43 23 28 8.62802
r44 8 30 19.38
r45 8 11 24.1072
r46 8 13 19.2857
r47 4 27 19.38
r48 4 12 19.2857
.ends

.subckt PM_NEURON_SUBMOD_X_1<1> 4 8 11 12 13 14 25 26 43
c58 43 0 0.00125829f
c59 26 0 0.00159001f
c60 25 0 0.00764978f
c61 12 0 0.00258577f
c62 11 0 0.00800437f
c63 8 0 0.00439575f
c64 4 0 0.00432463f
r65 45 46 6.52931
r66 44 45 5.36336
r67 43 46 3.03147
r68 41 44 5.82974
r69 28 30 7.46207
r70 26 30 5.36336
r71 25 26 0.9184
r72 25 41 0.9184
r73 8 43 19.38
r74 8 14 19.2857
r75 8 12 24.1072
r76 4 28 19.38
r77 4 13 19.2857
r78 4 11 24.1072
.ends

.subckt PM_NEURON_SUBMOD_X_0<0> 4 8 11 12 13 23 30
c34 30 0 0.00302818f
c35 13 0 2.71841e-20
c36 12 0 0.0230397f
c37 8 0 0.00211831f
c38 4 0 0.00216374f
r39 27 30 12.5922
r40 27 28 8.39483
r41 23 28 8.62802
r42 8 30 19.38
r43 8 11 24.1072
r44 8 13 19.2857
r45 4 27 19.38
r46 4 12 19.2857
.ends

.subckt PM_NEURON_SUBMOD_X_0<1> 4 8 11 12 13 14 25 26 43
c57 43 0 0.0011449f
c58 26 0 0.00155213f
c59 25 0 0.00751428f
c60 12 0 0.00275019f
c61 11 0 0.00679592f
c62 8 0 0.00436681f
c63 4 0 0.0042965f
r64 45 46 6.52931
r65 44 45 5.36336
r66 43 46 3.03147
r67 41 44 5.82974
r68 28 30 7.46207
r69 26 30 5.36336
r70 25 26 0.9184
r71 25 41 0.9184
r72 8 43 19.38
r73 8 14 19.2857
r74 8 12 24.1072
r75 4 28 19.38
r76 4 13 19.2857
r77 4 11 24.1072
.ends

.subckt PM_NEURON_SUBMOD_VDD 7 8 11 12 19 22 23 27 29 30 32 35 37 38 44 52 54 55
+ 94 112 124 147 155 164 209 215 258 267 350 356 360 366 370 378 386 394 406 414
+ 418 426 438 446 450 458 466 476 490 498 518 526 538 546 550 558 564 572 588
+ 600 610 618 626 654 662 674 682 692 700 712 720 724 732 740 748 756 768 772
+ 780 788 796 803 804 805 806 807 808 809 810 811 812 813 814 815 816 817 818
+ 819 820 821 822 823 824 825 826 827 828 829 830 831 832 833 834 835 836 837
+ 838 839 840 841 842 843 844 845 846 847 848 849 850 851 852 853 854 855 856
+ 857 858 859 860 861 862 863 864 865 866 1054 1055 1105 1183 1184 1185 1186
+ 1187 1188 1189 1190 1191 1192 1193 1194 1195 1196 1197 1198 1199 1200 1201
+ 1202 1203 1204 1205 1206 1207 1208 1209 1210 1211 1212 1213 1214 1215 1216
+ 1283 1349 1502 1573 1618
c1136 1618 0 0.00491371f
c1137 1573 0 0.00322479f
c1138 1502 0 0.00223446f
c1139 1349 0 7.48826e-19
c1140 1283 0 0.00184757f
c1141 1216 0 0.00289511f
c1142 1215 0 0.00300135f
c1143 1214 0 0.00112957f
c1144 866 0 0.037887f
c1145 865 0 0.0380206f
c1146 864 0 0.00193917f
c1147 860 0 0.00193917f
c1148 858 0 0.0377998f
c1149 856 0 0.00189952f
c1150 853 0 0.0378689f
c1151 851 0 0.00198465f
c1152 847 0 0.0378664f
c1153 844 0 0.00207926f
c1154 843 0 0.00208054f
c1155 839 0 0.0378996f
c1156 838 0 0.0377212f
c1157 837 0 0.0377797f
c1158 835 0 0.0379321f
c1159 831 0 0.00199766f
c1160 826 0 0.0019697f
c1161 825 0 0.0378041f
c1162 822 0 0.00208397f
c1163 821 0 0.00203162f
c1164 814 0 0.00199597f
c1165 813 0 0.00201266f
c1166 810 0 0.0378027f
c1167 809 0 0.0378457f
c1168 806 0 0.00202005f
c1169 805 0 0.00201243f
c1170 796 0 0.00209512f
c1171 788 0 0.00197948f
c1172 780 0 0.00112398f
c1173 772 0 0.0403761f
c1174 768 0 0.0378537f
c1175 756 0 0.00117482f
c1176 748 0 0.00309625f
c1177 740 0 0.00189608f
c1178 732 0 0.0396498f
c1179 724 0 0.00199833f
c1180 720 0 0.0376979f
c1181 712 0 0.00197765f
c1182 700 0 0.00201575f
c1183 692 0 0.039737f
c1184 682 0 0.0404873f
c1185 674 0 0.0396734f
c1186 662 0 0.00205267f
c1187 654 0 0.00200064f
c1188 626 0 0.0396794f
c1189 618 0 0.0400414f
c1190 610 0 0.0398242f
c1191 600 0 0.00335338f
c1192 588 0 0.0376964f
c1193 572 0 0.0378338f
c1194 564 0 0.0376419f
c1195 558 0 0.00472734f
c1196 550 0 0.00167503f
c1197 546 0 0.0378257f
c1198 538 0 0.00201953f
c1199 526 0 0.0401934f
c1200 518 0 0.0396724f
c1201 498 0 0.00198355f
c1202 490 0 0.00195299f
c1203 476 0 0.040939f
c1204 466 0 0.0410527f
c1205 458 0 0.00330016f
c1206 450 0 0.0031835f
c1207 446 0 0.0385792f
c1208 438 0 0.0386001f
c1209 426 0 0.00203987f
c1210 418 0 0.00183033f
c1211 414 0 0.0375976f
c1212 406 0 0.0376076f
c1213 394 0 0.00239086f
c1214 386 0 0.00242734f
c1215 378 0 0.00339971f
c1216 370 0 0.00342221f
c1217 366 0 0.0378065f
c1218 360 0 0.00293724f
c1219 356 0 0.0377282f
c1220 350 0 0.00292968f
c1221 267 0 0.0999892f
c1222 258 0 0.00200088f
c1223 215 0 0.00178669f
c1224 209 0 0.00139584f
c1225 164 0 0.07408f
c1226 155 0 0.00210697f
c1227 147 0 0.00212174f
c1228 124 0 0.00176235f
c1229 112 0 0.00201604f
c1230 94 0 0.0015611f
c1231 55 0 0.0191517f
c1232 54 0 0.0793172f
c1233 52 0 0.0673857f
c1234 44 0 0.00116637f
c1235 38 0 0.00164009f
c1236 37 0 0.00151841f
c1237 35 0 0.00202987f
c1238 32 0 0.0758058f
c1239 30 0 0.00172616f
c1240 29 0 0.0017679f
c1241 27 0 0.00179566f
c1242 23 0 0.00123741f
c1243 22 0 0.0996705f
c1244 19 0 0.0952732f
c1245 12 0 0.0020871f
c1246 11 0 0.00194754f
c1247 8 0 0.00214894f
c1248 7 0 0.00217535f
r1249 1680 1681 9.56078
r1250 1676 1677 0.932759
r1251 1675 1676 1.16595
r1252 1674 1675 10.4935
r1253 1673 1674 4.19742
r1254 1672 1673 27.2832
r1255 1671 1672 7.22888
r1256 1670 1671 11.8927
r1257 1669 1670 5.82974
r1258 1668 1669 9.56078
r1259 1667 1680 1.16595
r1260 1667 1677 8.39483
r1261 1664 1665 2.09871
r1262 1663 1664 10.4935
r1263 1662 1668 1.16595
r1264 1662 1665 8.39483
r1265 1658 1659 9.56078
r1266 1654 1655 0.932759
r1267 1653 1654 1.16595