* File: Neuron_submod.pex.netlist.pex
* Created: Mon Dec  8 00:09:53 2025
* Program "Calibre xACT"
* Version "v2024.4_39.16"
* Nominal Temperature: 25C
* Circuit Temperature: 27C
* 
.subckt PM_NEURON_SUBMOD_VSS 6 8 13 14 17 22 24 25 28 32 33 38 59 75 83 92 96
+ 100 146 203 221 245 253 285 298 302 320 328 349 366 374 386 397 432 450 458
+ 466 479 492 514 519 528 549 571 596 611 612 618 619 620 621 622 623 624 625
+ 626 627 628 629 630 631 632 633 634 635 636 637 638 639 640 641 642 643 644
+ 645 646 647 648 649 650 651 652 653 654 655 656 657 658 659 660 661 662 663
+ 664 665 666 667 668 669 670 671 777 778 780 913 914 915 916 917 919 920 921
+ 923 924 926 927 928 929 930 931 932 933 934 935 936 937 938 939 940 941 942
+ 974 1017 1082 1137 1223 1252 1272 1275 1303 1306 1308 1309
c968 1309 0 0.00176443f
c969 1308 0 4.73616e-19
c970 1306 0 4.45295e-19
c971 1303 0 3.09214e-19
c972 1275 0 0.00173138f
c973 1272 0 0.0010561f
c974 1252 0 0.00699139f
c975 1223 0 0.00352317f
c976 1137 0 5.62131e-19
c977 1082 0 0.00257027f
c978 1017 0 0.00267432f
c979 974 0 0.00792443f
c980 942 0 5.87112e-19
c981 940 0 0.00703922f
c982 938 0 0.0027412f
c983 936 0 0.0029272f
c984 920 0 0.00577726f
c985 671 0 0.0274869f
c986 670 0 0.00174633f
c987 669 0 0.00178931f
c988 666 0 0.0281363f
c989 665 0 0.0274921f
c990 664 0 0.0274397f
c991 663 0 0.00159254f
c992 660 0 0.00160377f
c993 658 0 0.00186103f
c994 656 0 0.0278686f
c995 654 0 0.0277654f
c996 653 0 0.0277531f
c997 652 0 0.00156446f
c998 649 0 0.027582f
c999 648 0 0.00227258f
c1000 647 0 0.0276575f
c1001 645 0 0.0276548f
c1002 644 0 0.0275799f
c1003 643 0 0.00174654f
c1004 642 0 0.0277442f
c1005 640 0 0.0277366f
c1006 639 0 0.00173357f
c1007 638 0 0.00167311f
c1008 637 0 0.00156336f
c1009 633 0 0.00156336f
c1010 632 0 0.00156336f
c1011 629 0 0.0278092f
c1012 628 0 0.0278762f
c1013 627 0 0.0277219f
c1014 626 0 0.0277219f
c1015 625 0 0.027657f
c1016 624 0 0.027657f
c1017 623 0 0.00157535f
c1018 622 0 0.00157535f
c1019 619 0 0.0276641f
c1020 618 0 0.0276641f
c1021 612 0 0.00502873f
c1022 596 0 0.00116358f
c1023 571 0 0.00252616f
c1024 549 0 0.0277173f
c1025 528 0 0.00124129f
c1026 519 0 0.00244714f
c1027 514 0 0.0277442f
c1028 492 0 0.00263871f
c1029 479 0 0.0276897f
c1030 466 0 0.00280226f
c1031 458 0 9.88399e-19
c1032 450 0 0.00217157f
c1033 432 0 0.00294106f
c1034 397 0 0.00114438f
c1035 386 0 0.00281764f
c1036 374 0 0.00256425f
c1037 366 0 0.00225319f
c1038 349 0 0.00246792f
c1039 328 0 0.00499462f
c1040 320 0 0.00113178f
c1041 302 0 0.00434976f
c1042 298 0 0.00291272f
c1043 285 0 0.0547994f
c1044 253 0 0.0426879f
c1045 245 0 0.0402704f
c1046 221 0 0.0647906f
c1047 203 0 0.0030528f
c1048 146 0 0.103647f
c1049 100 0 0.0610204f
c1050 96 0 0.00121371f
c1051 92 0 0.00251665f
c1052 83 0 0.0806986f
c1053 75 0 0.00241214f
c1054 59 0 0.0586318f
c1055 38 0 0.00120721f
c1056 33 0 0.00317038f
c1057 32 0 0.0341037f
c1058 28 0 0.0956323f
c1059 25 0 0.00222419f
c1060 24 0 0.00324622f
c1061 22 0 0.00134453f
c1062 17 0 0.00320012f
c1063 14 0 0.00269358f
c1064 13 0 0.00249914f
c1065 8 0 0.00200912f
c1066 6 0 0.00246958f
r1067 1307 1308 0.613082
r1068 1303 1304 7.46207
r1069 1301 1309 0.202133
r1070 1301 1304 5.36336
r1071 1297 1298 10.4935
r1072 1296 1297 2.09871
r1073 1292 1293 9.56078
r1074 1291 1296 8.39483
r1075 1291 1293 1.16595
r1076 1289 1292 1.86552
r1077 1284 1285 2.09871
r1078 1283 1287 8.39483
r1079 1283 1285 2.09871
r1080 1280 1284 8.39483
r1081 1280 1281 1.16595
r1082 1278 1306 0.777784
r1083 1278 1281 5.36336
r1084 1275 1309 0.777784
r1085 1275 1308 12.5922
r1086 1273 1307 1.86552
r1087 1272 1273 4.19742
r1088 1270 1306 0.202133
r1089 1270 1272 4.4306
r1090 1267 1268 10.4935
r1091 1266 1267 0.699569
r1092 1262 1263 9.56078
r1093 1261 1262 14.4578
r1094 1260 1261 27.2832
r1095 1259 1260 2.09871
r1096 1258 1259 5.13017
r1097 1257 1258 24.2517
r1098 1256 1266 9.79397
r1099 1256 1263 1.16595
r1100 1253 1254 2.09871
r1101 1252 1257 4.19742
r1102 1252 1254 2.09871
r1103 1249 1250 9.56078
r1104 1248 1249 6.06293
r1105 1247 1253 8.39483
r1106 1247 1250 1.16595
r1107 1244 1245 2.09871
r1108 1243 1248 8.39483
r1109 1243 1245 2.09871
r1110 1240 1241 27.2832
r1111 1239 1240 2.09871
r1112 1238 1239 5.13017
r1113 1237 1238 11.8927
r1114 1236 1244 8.39483
r1115 1236 1241 25.1845
r1116 1233 1234 4.19742
r1117 1232 1233 2.09871
r1118 1228 1229 8.39483
r1119 1227 1232 14.691
r1120 1227 1229 39.8754
r1121 1224 1225 0.932759
r1122 1223 1228 2.09871
r1123 1223 1225 39.8754
r1124 1220 1221 6.29612
r1125 1216 1220 39.8754
r1126 1216 1217 14.691
r1127 1211 1212 2.09871
r1128 1210 1214 8.39483
r1129 1210 1212 2.09871
r1130 1207 1208 9.56078
r1131 1206 1211 8.39483
r1132 1206 1208 1.16595
r1133 1201 1202 2.09871
r1134 1200 1204 8.39483
r1135 1200 1202 2.09871
r1136 1197 1198 9.56078
r1137 1196 1201 8.39483
r1138 1196 1198 1.16595
r1139 1193 1194 6.29612
r1140 1186 1193 39.8754
r1141 1182 1183 10.4935
r1142 1181 1182 2.09871
r1143 1177 1178 2.09871
r1144 1176 1177 0.932759
r1145 1175 1176 4.19742
r1146 1174 1175 5.36336
r1147 1173 1174 6.52931
r1148 1172 1173 3.96423
r1149 1171 1172 2.09871
r1150 1170 1171 2.09871
r1151 1169 1170 6.29612
r1152 1168 1169 6.29612
r1153 1167 1168 6.29612
r1154 1166 1181 8.39483
r1155 1166 1178 2.09871
r1156 1164 1167 14.691
r1157 1162 1164 12.5922
r1158 1158 1159 8.86121
r1159 1157 1158 3.73104
r1160 1156 1157 2.09871
r1161 1155 1156 10.4935
r1162 1154 1155 2.09871
r1163 1153 1162 12.5922
r1164 1153 1159 2.09871
r1165 1150 1151 9.56078
r1166 1149 1150 6.06293
r1167 1148 1149 6.29612
r1168 1147 1148 4.19742
r1169 1146 1147 2.09871
r1170 1145 1146 4.89698
r1171 1144 1154 8.39483
r1172 1144 1151 1.16595
r1173 1141 1145 3.49785
r1174 1141 1142 20.9871
r1175 1138 1139 2.09871
r1176 1137 1142 4.19742
r1177 1137 1139 2.09871
r1178 1134 1135 0.932759
r1179 1133 1134 8.62802
r1180 1132 1133 1.86552
r1181 1131 1138 8.39483
r1182 1131 1135 1.16595
r1183 1127 1129 8.39483
r1184 1124 1125 8.16164
r1185 1121 1122 2.09871
r1186 1120 1121 6.52931
r1187 1119 1124 0.23319
r1188 1119 1122 2.09871
r1189 1116 1120 1.86552
r1190 1116 1117 1.16595
r1191 1113 1114 6.52931
r1192 1110 1113 1.86552
r1193 1110 1111 2.09871
r1194 1107 1108 6.06293
r1195 1106 1107 0.23319
r1196 1103 1104 4.19742
r1197 1102 1106 2.09871
r1198 1102 1104 8.39483
r1199 1097 1098 2.09871
r1200 1096 1097 5.13017
r1201 1095 1096 5.36336
r1202 1094 1095 8.86121
r1203 1093 1094 1.63233
r1204 1092 1093 0.699569
r1205 1091 1098 2.09871
r1206 1088 1089 2.56509
r1207 1087 1088 3.73104
r1208 1083 1084 9.32759
r1209 1082 1087 39.8754
r1210 1082 1084 14.691
r1211 1079 1080 5.82974
r1212 1075 1076 10.4935
r1213 1074 1079 39.8754
r1214 1074 1076 14.691
r1215 1071 1072 2.09871
r1216 1070 1071 5.13017
r1217 1069 1070 24.2517
r1218 1066 1067 2.09871
r1219 1065 1069 4.19742
r1220 1065 1067 2.09871
r1221 1062 1063 9.56078
r1222 1061 1062 6.06293
r1223 1060 1066 8.39483
r1224 1060 1063 1.16595
r1225 1057 1058 2.09871
r1226 1056 1061 8.39483
r1227 1056 1058 2.09871
r1228 1053 1057 8.39483
r1229 1051 1306 0.777784
r1230 1051 1184 1.86552
r1231 1045 1046 21.4535
r1232 1044 1049 33.5793
r1233 1044 1046 14.691
r1234 1041 1042 6.29612
r1235 1037 1041 39.8754
r1236 1037 1038 14.691
r1237 1033 1034 2.09871
r1238 1032 1033 10.4935
r1239 1031 1032 6.06293
r1240 1030 1031 9.56078
r1241 1029 1038 23.0858
r1242 1029 1034 8.39483
r1243 1026 1027 2.09871
r1244 1025 1030 1.16595
r1245 1025 1027 8.39483
r1246 1022 1023 24.2517
r1247 1021 1022 5.13017
r1248 1020 1021 2.09871
r1249 1019 1020 27.2832
r1250 1018 1019 4.66379
r1251 1017 1026 2.09871
r1252 1017 1023 4.19742
r1253 1013 1014 6.7625
r1254 1012 1013 2.09871
r1255 1011 1012 10.4935
r1256 1010 1011 16.7897
r1257 1009 1018 7.92845
r1258 1009 1014 1.63233
r1259 1006 1007 2.09871
r1260 1005 1006 5.13017
r1261 1000 1001 2.09871
r1262 999 1003 4.19742
r1263 999 1001 2.09871
r1264 996 997 9.56078
r1265 995 1000 8.39483
r1266 995 997 1.16595
r1267 990 991 2.09871
r1268 989 993 8.39483
r1269 989 991 2.09871
r1270 986 987 7.22888
r1271 985 986 4.19742
r1272 984 990 8.39483
r1273 984 987 1.16595
r1274 981 982 2.09871
r1275 980 981 5.13017
r1276 977 978 10.0272
r1277 976 977 4.19742
r1278 975 976 27.2832
r1279 974 980 3.26466
r1280 974 978 12.5922
r1281 969 970 2.09871
r1282 968 972 8.39483
r1283 968 970 2.09871
r1284 965 966 9.56078
r1285 964 969 8.39483
r1286 964 966 1.16595
r1287 959 960 2.09871
r1288 958 962 8.39483
r1289 958 960 2.09871
r1290 955 956 9.56078
r1291 954 959 8.39483
r1292 954 956 1.16595
r1293 951 952 6.29612
r1294 944 951 39.8754
r1295 941 942 1.16595
r1296 941 1298 0.932759
r1297 940 1049 0.932759
r1298 939 1289 2.09871
r1299 939 1287 2.09871
r1300 938 1184 2.3319
r1301 938 1183 1.86552
r1302 937 1045 3.96423
r1303 937 1042 1.86552
r1304 936 1268 1.16595
r1305 935 1237 4.66379
r1306 935 1234 3.49785
r1307 934 1132 2.09871
r1308 934 1129 2.09871
r1309 933 1127 2.09871
r1310 933 1125 2.09871
r1311 932 1010 15.8569
r1312 932 1007 24.0185
r1313 931 1117 0.932759
r1314 931 1114 2.09871
r1315 930 1111 1.16595
r1316 930 1108 0.932759
r1317 929 1005 17.9556
r1318 929 1003 6.29612
r1319 928 1103 3.26466
r1320 928 1091 21.9198
r1321 927 996 3.96423
r1322 927 993 2.09871
r1323 926 1224 12.8254
r1324 926 1221 0.932759
r1325 924 1092 2.56509
r1326 924 1089 0.932759
r1327 923 985 3.26466
r1328 923 982 24.0185
r1329 921 1083 4.4306
r1330 921 1080 1.39914
r1331 920 1217 62.9612
r1332 920 1214 2.09871
r1333 919 975 10.9599
r1334 919 972 2.09871
r1335 917 1075 3.26466
r1336 917 1072 24.0185
r1337 916 1207 3.96423
r1338 916 1204 2.09871
r1339 915 965 3.96423
r1340 915 962 2.09871
r1341 914 1197 5.13017
r1342 914 1194 0.932759
r1343 913 955 5.13017
r1344 913 952 0.932759
r1345 608 671 0.277778
r1346 608 609 15.9139
r1347 606 1291 96.0901
r1348 606 609 29.1755
r1349 599 1289 96.0901
r1350 599 600 13.2616
r1351 596 670 0.314815
r1352 596 668 0.314815
r1353 596 600 31.8278
r1354 592 669 0.314815
r1355 592 667 0.314815
r1356 592 593 31.8278
r1357 590 1044 96.0901
r1358 590 593 13.2616
r1359 584 666 0.277778
r1360 584 585 15.9139
r1361 582 1280 96.0901
r1362 582 585 29.1755
r1363 575 576 15.9139
r1364 574 1256 96.0901
r1365 574 576 13.2616
r1366 571 665 0.277778
r1367 571 575 15.9139
r1368 567 568 15.3245
r1369 566 664 0.277778
r1370 566 568 15.9139
r1371 564 1166 96.0901
r1372 564 567 13.851
r1373 558 663 0.314815
r1374 558 662 0.314815
r1375 558 559 31.2384
r1376 556 1037 96.0901
r1377 556 559 13.851
r1378 550 551 15.3245
r1379 549 661 0.277778
r1380 549 551 15.9139
r1381 547 1029 96.0901
r1382 547 550 13.851
r1383 541 660 0.314815
r1384 541 659 0.314815
r1385 541 542 31.2384
r1386 539 1162 96.0901
r1387 539 542 13.851
r1388 532 533 0.589404
r1389 531 1153 96.0901
r1390 531 533 13.2616
r1391 528 658 0.314815
r1392 528 657 0.314815
r1393 528 532 31.2384
r1394 523 524 15.9139
r1395 522 1247 96.0901
r1396 522 524 13.2616
r1397 519 656 0.277778
r1398 519 523 15.9139
r1399 515 516 15.9139
r1400 514 655 0.277778
r1401 514 516 15.9139
r1402 512 1025 96.0901
r1403 512 515 13.2616
r1404 506 507 15.3245
r1405 505 654 0.277778
r1406 505 507 15.9139
r1407 503 1144 96.0901
r1408 503 506 13.851
r1409 496 497 15.9139
r1410 495 1236 96.0901
r1411 495 497 13.2616
r1412 492 653 0.277778
r1413 492 496 15.9139
r1414 488 652 0.314815
r1415 488 651 0.314815
r1416 488 489 31.2384
r1417 486 1137 96.0901
r1418 486 489 13.851
r1419 480 481 15.9139
r1420 479 650 0.277778
r1421 479 481 15.9139
r1422 477 1009 96.0901
r1423 477 480 13.2616
r1424 470 471 15.9139
r1425 469 1131 96.0901
r1426 469 471 13.2616
r1427 466 649 0.277778
r1428 466 470 15.9139
r1429 461 1227 96.0901
r1430 461 462 13.2616
r1431 458 648 0.209877
r1432 458 646 0.209877
r1433 458 462 23.8708
r1434 453 1119 96.0901
r1435 453 454 29.1755
r1436 450 647 0.277778
r1437 450 454 15.9139
r1438 446 447 15.3245
r1439 445 645 0.277778
r1440 445 447 15.9139
r1441 443 1116 96.0901
r1442 443 446 13.851
r1443 436 437 15.9139
r1444 435 1102 96.0901
r1445 435 437 13.2616
r1446 432 644 0.277778
r1447 432 436 15.9139
r1448 428 643 0.314815
r1449 428 641 0.314815
r1450 428 429 31.2384
r1451 426 1091 96.0901
r1452 426 429 13.851
r1453 420 421 15.9139
r1454 419 642 0.277778
r1455 419 421 15.9139
r1456 417 995 96.0901
r1457 417 420 13.2616
r1458 411 412 15.9139
r1459 410 640 0.277778
r1460 410 412 15.9139
r1461 408 984 96.0901
r1462 408 411 13.2616
r1463 401 402 0.589404
r1464 400 1216 96.0901
r1465 400 402 13.2616
r1466 397 639 0.314815
r1467 397 636 0.314815
r1468 397 401 31.2384
r1469 393 638 0.314815
r1470 393 635 0.314815
r1471 393 394 31.2384
r1472 390 391 0.589404
r1473 386 637 0.314815
r1474 386 634 0.314815
r1475 386 390 31.2384
r1476 382 383 0.589404
r1477 381 633 0.314815
r1478 381 631 0.314815
r1479 381 383 31.2384
r1480 378 379 0.589404
r1481 374 632 0.314815
r1482 374 630 0.314815
r1483 374 378 31.2384
r1484 369 1206 96.0901
r1485 369 370 29.1755
r1486 366 629 0.277778
r1487 366 370 15.9139
r1488 362 628 0.277778
r1489 362 363 15.9139
r1490 360 964 96.0901
r1491 360 363 29.1755
r1492 353 354 15.3245
r1493 352 1196 96.0901
r1494 352 354 13.851
r1495 349 627 0.277778
r1496 349 353 15.9139
r1497 345 346 15.3245
r1498 344 626 0.277778
r1499 344 346 15.9139
r1500 342 954 96.0901
r1501 342 345 13.851
r1502 336 337 15.9139
r1503 335 625 0.277778
r1504 335 337 15.9139
r1505 332 333 15.9139
r1506 328 624 0.277778
r1507 328 332 15.9139
r1508 323 1186 96.0901
r1509 323 324 13.851
r1510 320 623 0.314815
r1511 320 621 0.314815
r1512 320 324 31.2384
r1513 316 622 0.314815
r1514 316 620 0.314815
r1515 316 317 31.2384
r1516 314 944 96.0901
r1517 314 317 13.851
r1518 308 619 0.277778
r1519 308 309 15.9139
r1520 302 618 0.277778
r1521 302 306 15.9139
r1522 298 1303 19.38
r1523 298 611 24.1072
r1524 298 612 19.2857
r1525 291 292 51.2835
r1526 290 291 74.5942
r1527 289 290 51.2835
r1528 286 287 51.2835
r1529 285 1252 14.4844
r1530 285 289 289.053
r1531 285 287 37.2971
r1532 281 282 51.2835
r1533 280 1243 9.65625
r1534 280 282 37.2971
r1535 277 278 51.2835
r1536 276 277 74.5942
r1537 275 276 51.2835
r1538 274 275 326.35
r1539 273 274 51.2835
r1540 269 270 51.2835
r1541 268 269 74.5942
r1542 267 268 51.2835
r1543 266 267 74.5942
r1544 265 266 51.2835
r1545 262 263 51.2835
r1546 261 262 74.5942
r1547 260 261 51.2835
r1548 259 260 326.35
r1549 258 259 51.2835
r1550 257 258 74.5942
r1551 256 257 51.2835
r1552 255 256 74.5942
r1553 254 255 51.2835
r1554 253 1223 9.65625
r1555 253 265 163.175
r1556 253 263 163.175
r1557 249 250 51.2835
r1558 246 247 51.2835
r1559 245 1210 28.9688
r1560 245 249 792.564
r1561 245 247 37.2971
r1562 241 242 51.2835
r1563 240 1200 9.65625
r1564 240 242 37.2971
r1565 237 238 51.2835
r1566 236 237 74.5942
r1567 235 236 51.2835
r1568 234 235 74.5942
r1569 233 234 51.2835
r1570 222 223 51.2835
r1571 221 1291 14.4844
r1572 221 606 0.294702
r1573 221 223 37.2971
r1574 218 219 51.2835
r1575 215 216 51.2835
r1576 214 1283 9.65625
r1577 214 218 37.2971
r1578 214 216 37.2971
r1579 211 212 51.2835
r1580 208 209 51.2835
r1581 207 208 326.35
r1582 206 207 51.2835
r1583 205 206 74.5942
r1584 204 205 51.2835
r1585 203 1166 9.65625
r1586 203 564 0.294702
r1587 203 211 37.2971
r1588 203 209 37.2971
r1589 200 201 51.2835
r1590 199 1164 28.9688
r1591 199 204 37.2971
r1592 199 201 37.2971
r1593 196 197 51.2835
r1594 192 193 51.2835
r1595 191 192 200.472
r1596 190 191 51.2835
r1597 187 188 51.2835
r1598 186 187 74.5942
r1599 185 186 51.2835
r1600 182 183 51.2835
r1601 181 182 74.5942
r1602 180 181 51.2835
r1603 179 1141 9.65625
r1604 179 185 37.2971
r1605 179 183 37.2971
r1606 176 177 51.2835
r1607 172 173 51.2835
r1608 171 1127 9.65625
r1609 171 173 37.2971
r1610 168 169 51.2835
r1611 164 165 51.2835
r1612 163 1110 9.65625
r1613 163 165 37.2971
r1614 160 161 51.2835
r1615 159 160 74.5942
r1616 158 159 51.2835
r1617 157 158 74.5942
r1618 156 157 51.2835
r1619 153 154 51.2835
r1620 152 153 326.35
r1621 151 152 51.2835
r1622 150 151 74.5942
r1623 149 150 51.2835
r1624 148 149 74.5942
r1625 147 148 51.2835
r1626 146 1091 9.65625
r1627 146 426 0.294702
r1628 146 156 37.2971
r1629 146 154 37.2971
r1630 142 143 51.2835
r1631 141 142 326.35
r1632 140 141 51.2835
r1633 139 140 74.5942
r1634 138 139 51.2835
r1635 137 138 74.5942
r1636 136 137 51.2835
r1637 132 133 51.2835
r1638 131 132 326.35
r1639 130 131 51.2835
r1640 129 130 74.5942
r1641 128 129 51.2835
r1642 125 126 51.2835
r1643 124 1065 14.4844
r1644 124 128 289.053
r1645 124 126 37.2971
r1646 120 121 51.2835
r1647 119 1056 9.65625
r1648 119 121 37.2971
r1649 109 110 51.2835
r1650 108 109 74.5942
r1651 107 108 51.2835
r1652 106 107 326.35
r1653 105 106 51.2835
r1654 104 105 74.5942
r1655 103 104 51.2835
r1656 102 103 74.5942
r1657 101 102 51.2835
r1658 100 1044 28.9688
r1659 100 590 0.294702
r1660 100 110 37.2971
r1661 97 98 51.2835
r1662 96 1037 14.4844
r1663 96 556 0.294702
r1664 96 101 37.2971
r1665 96 98 37.2971
r1666 93 94 51.2835
r1667 92 1029 9.65625
r1668 92 547 0.294702
r1669 92 97 289.053
r1670 92 94 37.2971
r1671 89 90 51.2835
r1672 86 87 51.2835
r1673 85 86 74.5942
r1674 84 85 51.2835
r1675 83 1017 9.65625
r1676 83 89 37.2971
r1677 83 87 289.053
r1678 80 81 51.2835
r1679 79 80 578.105
r1680 78 79 51.2835
r1681 77 78 74.5942
r1682 76 77 51.2835
r1683 75 1009 28.9688
r1684 75 477 0.294702
r1685 75 84 289.053
r1686 75 81 37.2971
r1687 72 73 51.2835
r1688 71 999 14.4844
r1689 71 76 289.053
r1690 71 73 37.2971
r1691 67 68 51.2835
r1692 66 989 9.65625
r1693 66 68 37.2971
r1694 63 64 51.2835
r1695 62 63 74.5942
r1696 61 62 51.2835
r1697 59 974 28.9688
r1698 59 61 37.2971
r1699 56 57 51.2835
r1700 55 968 28.9688
r1701 55 59 755.266
r1702 55 57 37.2971
r1703 51 52 51.2835
r1704 50 958 9.65625
r1705 50 52 37.2971
r1706 47 48 51.2835
r1707 46 47 74.5942
r1708 45 46 51.2835
r1709 44 45 74.5942
r1710 43 44 51.2835
r1711 38 944 9.65625
r1712 38 314 0.294702
r1713 38 43 37.2971
r1714 35 599 0.294702
r1715 35 222 37.2971
r1716 35 219 37.2971
r1717 33 582 0.294702
r1718 33 215 37.2971
r1719 33 212 289.053
r1720 32 1256 14.4844
r1721 32 574 0.294702
r1722 32 292 414.93
r1723 28 539 0.294702
r1724 28 200 37.2971
r1725 28 197 37.2971
r1726 27 1153 9.65625
r1727 27 531 0.294702
r1728 27 196 37.2971
r1729 27 193 37.2971
r1730 26 522 0.294702
r1731 26 286 37.2971
r1732 26 280 251.755
r1733 25 512 0.294702
r1734 25 93 289.053
r1735 25 90 37.2971
r1736 24 503 0.294702
r1737 24 190 37.2971
r1738 24 188 163.175
r1739 23 495 0.294702
r1740 23 281 37.2971
r1741 23 278 414.93
r1742 22 486 0.294702
r1743 22 180 37.2971
r1744 22 177 37.2971
r1745 20 469 0.294702
r1746 20 176 37.2971
r1747 20 171 251.755
r1748 19 1227 14.4844
r1749 19 461 0.294702
r1750 19 273 37.2971
r1751 19 270 37.2971
r1752 18 453 0.294702
r1753 18 172 37.2971
r1754 18 169 37.2971
r1755 17 443 0.294702
r1756 17 168 37.2971
r1757 17 163 125.878
r1758 16 435 0.294702
r1759 16 164 37.2971
r1760 16 161 37.2971
r1761 14 417 0.294702
r1762 14 72 37.2971
r1763 14 66 251.755
r1764 13 408 0.294702
r1765 13 67 37.2971
r1766 13 64 289.053
r1767 12 1216 9.65625
r1768 12 400 0.294702
r1769 12 254 37.2971
r1770 12 250 37.2971
r1771 11 1082 19.38
r1772 11 1082 9.65625
r1773 11 394 16.5033
r1774 11 391 15.9139
r1775 11 147 37.2971
r1776 11 143 37.2971
r1777 10 1074 19.38
r1778 10 1074 9.65625
r1779 10 382 15.9139
r1780 10 379 15.9139
r1781 10 136 37.2971
r1782 10 133 37.2971
r1783 9 369 0.294702
r1784 9 246 37.2971
r1785 9 240 251.755
r1786 8 360 0.294702
r1787 8 56 37.2971
r1788 8 50 251.755
r1789 7 352 0.294702
r1790 7 241 37.2971
r1791 7 238 289.053
r1792 6 342 0.294702
r1793 6 51 37.2971
r1794 6 48 289.053
r1795 5 1060 19.38
r1796 5 336 15.9139
r1797 5 333 15.9139
r1798 5 125 37.2971
r1799 5 119 251.755
r1800 4 1186 9.65625
r1801 4 323 0.294702
r1802 4 233 37.2971
r1803 2 1053 19.38
r1804 2 309 31.8278
r1805 2 306 31.8278
r1806 2 120 37.2971
.ends

.subckt PM_NEURON_SUBMOD_VDD 1 8 10 13 15 17 23 24 26 27 32 35 45 70 88 117 124
+ 133 164 173 212 304 312 328 338 344 348 364 388 400 404 420 434 438 444 448
+ 456 464 474 498 518 530 538 546 562 570 594 602 608 612 620 628 636 646 654
+ 664 671 672 673 674 675 676 677 678 679 680 681 682 683 684 685 686 687 688
+ 689 690 691 692 693 694 695 696 697 698 699 700 701 702 703 704 705 706 707
+ 708 709 710 711 712 713 714 715 716 717 718 719 720 721 722 723 724 725 885
+ 886 997 998 999 1000 1001 1002 1003 1004 1005 1006 1007 1008 1009 1011 1012
+ 1013 1014 1015 1016 1017 1018 1019 1020 1021 1022 1023 1025 1090 1157 1275
+ 1323
c989 1323 0 0.0012034f
c990 1275 0 0.00219137f
c991 1157 0 0.00136258f
c992 1090 0 0.00140633f
c993 1025 0 0.00112695f
c994 1023 0 0.00155454f
c995 725 0 0.0378143f
c996 724 0 0.00166669f
c997 723 0 0.00168134f
c998 720 0 0.0379255f
c999 719 0 0.0376791f
c1000 718 0 0.0376734f
c1001 716 0 0.00189466f
c1002 712 0 0.0017632f
c1003 711 0 0.00188761f
c1004 710 0 0.0374433f
c1005 708 0 0.0375976f
c1006 707 0 0.0374179f
c1007 705 0 0.00177332f
c1008 703 0 0.0375052f
c1009 702 0 0.0374565f
c1010 700 0 0.0375911f
c1011 699 0 0.00168838f
c1012 698 0 0.0376047f
c1013 696 0 0.00180101f
c1014 695 0 0.00183777f
c1015 694 0 0.0375743f
c1016 693 0 0.0375171f
c1017 689 0 0.00187588f
c1018 688 0 0.00169816f
c1019 687 0 0.00186288f
c1020 684 0 0.00174456f
c1021 683 0 0.00174456f
c1022 682 0 0.0375926f
c1023 681 0 0.0375926f
c1024 680 0 0.0376496f
c1025 679 0 0.0376872f
c1026 678 0 0.0375277f
c1027 677 0 0.0375277f
c1028 674 0 0.0018487f
c1029 673 0 0.00184794f
c1030 672 0 0.0374615f
c1031 671 0 0.0374615f
c1032 664 0 0.00175413f
c1033 654 0 0.00241152f
c1034 646 0 0.00197837f
c1035 636 0 0.00380752f
c1036 628 0 0.00443344f
c1037 620 0 9.86863e-19
c1038 612 0 0.0044118f
c1039 608 0 0.00176715f
c1040 602 0 0.0423807f
c1041 594 0 8.5851e-19
c1042 570 0 0.0393494f
c1043 562 0 0.00197411f
c1044 546 0 0.00463186f
c1045 538 0 0.00119992f
c1046 530 0 0.0398502f
c1047 518 0 0.00187134f
c1048 498 0 0.00196381f
c1049 474 0 0.00461322f
c1050 464 0 0.00203538f
c1051 456 0 0.00195035f
c1052 448 0 0.00219566f
c1053 444 0 0.00182132f
c1054 438 0 0.0068869f
c1055 434 0 0.00181979f
c1056 420 0 0.00175886f
c1057 404 0 0.00437782f
c1058 400 0 0.00183639f
c1059 388 0 9.23077e-19
c1060 364 0 0.00192677f
c1061 348 0 0.0020524f
c1062 344 0 0.00185129f
c1063 338 0 0.0042657f
c1064 328 0 0.00606049f
c1065 312 0 0.00100201f
c1066 304 0 0.0021954f
c1067 212 0 0.0725294f
c1068 173 0 0.00100201f
c1069 164 0 0.0745673f
c1070 133 0 0.00125979f
c1071 124 0 0.0802377f
c1072 117 0 0.00205248f
c1073 88 0 0.0699409f
c1074 70 0 9.39811e-19
c1075 45 0 0.0778997f
c1076 35 0 0.00204377f
c1077 32 0 0.0794527f
c1078 27 0 0.00326827f
c1079 26 0 0.00194649f
c1080 24 0 0.00141504f
c1081 23 0 0.00241854f
c1082 17 0 0.00280006f
c1083 15 0 0.00116755f
c1084 13 0 0.0026799f
c1085 10 0 0.00209242f
c1086 8 0 0.00208864f
c1087 1 0 0.00220726f
r1088 1386 1387 10.4935
r1089 1385 1386 2.09871
r1090 1381 1382 9.56078
r1091 1380 1385 8.39483
r1092 1380 1382 1.16595
r1093 1377 1378 10.4935
r1094 1376 1377 2.09871
r1095 1372 1373 9.56078
r1096 1371 1372 1.86552
r1097 1370 1376 8.39483
r1098 1370 1373 1.16595
r1099 1367 1368 10.4935
r1100 1366 1367 0.699569
r1101 1365 1366 1.39914
r1102 1362 1363 3.96423
r1103 1361 1362 5.59655
r1104 1360 1361 3.96423
r1105 1359 1360 10.4935
r1106 1358 1359 4.19742
r1107 1357 1365 8.39483
r1108 1357 1363 1.16595
r1109 1355 1358 8.39483
r1110 1352 1353 7.22888
r1111 1351 1352 13.7582
r1112 1350 1355 12.5922
r1113 1350 1353 2.09871
r1114 1346 1347 0.932759
r1115 1345 1346 10.4935
r1116 1344 1345 2.09871
r1117 1343 1344 5.59655
r1118 1342 1343 1.16595
r1119 1341 1351 2.09871
r1120 1341 1347 3.26466
r1121 1338 1339 3.03147
r1122 1337 1338 6.52931
r1123 1336 1342 1.63233
r1124 1336 1339 1.16595
r1125 1333 1334 2.09871
r1126 1332 1337 1.86552
r1127 1332 1334 2.09871
r1128 1329 1330 0.932759
r1129 1328 1329 2.09871
r1130 1327 1328 6.52931
r1131 1326 1333 8.39483
r1132 1326 1330 1.16595
r1133 1323 1327 1.86552
r1134 1323 1324 4.19742
r1135 1321 1324 8.39483
r1136 1318 1321 12.5922
r1137 1318 1319 14.691
r1138 1314 1315 7.22888
r1139 1313 1314 10.7267
r1140 1312 1313 4.19742
r1141 1311 1312 0.932759
r1142 1310 1319 10.4935
r1143 1310 1315 2.09871
r1144 1303 1304 2.09871
r1145 1302 1303 5.59655
r1146 1301 1306 8.39483
r1147 1301 1304 2.09871
r1148 1297 1298 6.52931
r1149 1296 1302 2.79828
r1150 1296 1298 4.19742
r1151 1294 1297 1.86552
r1152 1288 1292 20.9871
r1153 1288 1289 16.0901
r1154 1286 1289 9.0944
r1155 1283 1284 9.32759
r1156 1282 1286 12.5922
r1157 1282 1284 1.63233
r1158 1278 1280 20.9871
r1159 1275 1278 12.5922
r1160 1275 1276 2.09871
r1161 1272 1273 1.16595
r1162 1271 1276 10.4935
r1163 1271 1273 24.0185
r1164 1267 1269 7.92845
r1165 1264 1267 12.5922
r1166 1264 1265 14.691
r1167 1261 1265 10.4935
r1168 1258 1259 10.4935
r1169 1257 1258 2.09871
r1170 1256 1257 2.56509
r1171 1253 1256 5.82974
r1172 1253 1254 1.16595
r1173 1249 1251 1.86552
r1174 1246 1247 10.4935
r1175 1245 1246 2.09871
r1176 1244 1245 5.13017
r1177 1241 1242 9.56078
r1178 1240 1241 0.23319
r1179 1239 1244 3.26466
r1180 1239 1242 1.16595
r1181 1234 1235 2.09871
r1182 1233 1237 8.39483
r1183 1233 1235 2.09871
r1184 1230 1231 9.56078
r1185 1229 1230 3.96423
r1186 1228 1229 2.09871
r1187 1227 1234 8.39483
r1188 1227 1231 1.16595
r1189 1223 1224 2.09871
r1190 1222 1223 5.59655
r1191 1221 1228 8.39483
r1192 1221 1224 2.09871
r1193 1217 1222 2.79828
r1194 1213 1214 6.29612
r1195 1211 1213 2.09871
r1196 1209 1211 25.1845
r1197 1206 1207 4.66379
r1198 1205 1206 4.19742
r1199 1204 1205 1.63233
r1200 1203 1209 12.5922
r1201 1203 1207 14.691
r1202 1199 1201 8.39483
r1203 1196 1197 7.22888
r1204 1195 1196 6.52931
r1205 1194 1199 12.5922
r1206 1194 1197 2.09871
r1207 1190 1191 14.691
r1208 1189 1190 4.19742
r1209 1188 1195 9.32759
r1210 1188 1191 2.09871
r1211 1185 1186 5.59655
r1212 1184 1185 2.09871
r1213 1183 1184 4.19742
r1214 1182 1183 2.09871
r1215 1181 1182 4.19742
r1216 1180 1189 16.7897
r1217 1180 1186 2.79828
r1218 1176 1177 9.56078
r1219 1175 1181 4.19742
r1220 1175 1177 1.86552
r1221 1172 1173 2.09871
r1222 1171 1172 10.4935
r1223 1170 1171 4.19742
r1224 1169 1170 1.63233
r1225 1168 1176 1.16595
r1226 1168 1173 8.39483
r1227 1165 1166 7.22888
r1228 1164 1165 4.19742
r1229 1163 1164 7.22888
r1230 1162 1163 10.2603
r1231 1161 1162 2.56509
r1232 1160 1161 3.03147
r1233 1159 1160 4.19742
r1234 1158 1159 0.466379
r1235 1157 1169 10.9599
r1236 1157 1166 3.26466
r1237 1154 1155 0.466379
r1238 1153 1154 2.09871
r1239 1152 1153 4.19742
r1240 1151 1152 2.09871
r1241 1150 1158 7.92845
r1242 1150 1155 1.63233
r1243 1146 1147 7.22888
r1244 1145 1146 2.3319
r1245 1144 1151 2.09871
r1246 1144 1147 1.16595
r1247 1141 1142 8.39483
r1248 1140 1141 2.09871
r1249 1139 1140 2.09871
r1250 1137 1139 8.39483
r1251 1133 1135 1.86552
r1252 1130 1131 10.4935
r1253 1129 1130 2.09871
r1254 1128 1129 5.13017
r1255 1127 1128 1.16595
r1256 1124 1125 2.56509
r1257 1123 1124 1.63233
r1258 1122 1127 2.09871
r1259 1122 1125 8.39483
r1260 1116 1117 2.09871
r1261 1115 1119 8.39483
r1262 1115 1117 2.09871
r1263 1112 1113 0.932759
r1264 1111 1112 7.22888
r1265 1110 1111 1.39914
r1266 1109 1116 8.39483
r1267 1109 1113 1.16595
r1268 1104 1105 1.39914
r1269 1103 1107 8.39483
r1270 1103 1105 0.699569
r1271 1100 1101 2.56509
r1272 1099 1100 3.73104
r1273 1096 1099 2.09871
r1274 1096 1097 8.39483
r1275 1094 1097 4.19742
r1276 1090 1091 2.09871
r1277 1087 1088 7.22888
r1278 1086 1087 14.9241
r1279 1085 1086 0.932759
r1280 1084 1085 0.932759
r1281 1083 1091 10.4935
r1282 1083 1088 2.09871
r1283 1078 1081 7.69526
r1284 1078 1079 1.63233
r1285 1075 1076 1.63233
r1286 1074 1079 10.9599
r1287 1074 1076 14.691
r1288 1071 1075 8.86121
r1289 1068 1069 10.4935
r1290 1067 1068 2.09871
r1291 1066 1067 2.56509
r1292 1063 1066 5.82974
r1293 1063 1064 1.16595
r1294 1059 1061 1.86552
r1295 1056 1057 10.4935
r1296 1055 1056 2.09871
r1297 1054 1055 5.13017
r1298 1051 1052 9.56078
r1299 1050 1051 0.23319
r1300 1049 1054 3.26466
r1301 1049 1052 1.16595
r1302 1044 1045 2.09871
r1303 1043 1047 8.39483
r1304 1043 1045 2.09871
r1305 1040 1041 9.56078
r1306 1039 1040 3.96423
r1307 1038 1039 2.09871
r1308 1037 1044 8.39483
r1309 1037 1041 1.16595
r1310 1033 1034 2.09871
r1311 1032 1033 5.59655
r1312 1031 1038 8.39483
r1313 1031 1034 2.09871
r1314 1027 1032 2.79828
r1315 1025 1387 2.09871
r1316 1023 1214 0.932759
r1317 1022 1381 3.96423
r1318 1022 1378 2.09871
r1319 1021 1204 2.3319
r1320 1021 1201 1.86552
r1321 1020 1371 3.03147
r1322 1020 1368 1.16595
r1323 1019 1145 3.96423
r1324 1019 1142 2.09871
r1325 1018 1311 2.3319
r1326 1018 1308 1.86552
r1327 1017 1308 10.4935
r1328 1017 1306 2.09871
r1329 1016 1137 3.26466
r1330 1016 1135 7.46207
r1331 1015 1133 2.09871
r1332 1015 1131 2.09871
r1333 1014 1294 3.26466
r1334 1014 1292 0.932759
r1335 1013 1123 2.09871
r1336 1012 1013 1.16595
r1337 1012 1119 0.932759
r1338 1011 1110 3.96423
r1339 1011 1107 2.09871
r1340 1009 1283 4.89698
r1341 1009 1280 0.932759
r1342 1008 1104 1.16595
r1343 1008 1101 0.932759
r1344 1007 1094 3.26466
r1345 1007 1090 9.32759
r1346 1006 1272 3.26466
r1347 1006 1269 1.39914
r1348 1005 1084 2.3319
r1349 1005 1081 1.63233
r1350 1004 1261 2.09871
r1351 1004 1259 2.09871
r1352 1003 1071 2.09871
r1353 1003 1069 2.09871
r1354 1002 1254 2.09871
r1355 1002 1251 7.46207
r1356 1001 1064 2.09871
r1357 1001 1061 7.46207
r1358 1000 1249 2.09871
r1359 1000 1247 2.09871
r1360 999 1059 2.09871
r1361 999 1057 2.09871
r1362 998 1240 4.89698
r1363 998 1237 0.932759
r1364 997 1050 4.89698
r1365 997 1047 0.932759
r1366 667 1380 96.0901
r1367 667 668 13.2616
r1368 664 725 0.185185
r1369 664 668 23.8708
r1370 660 724 0.209877
r1371 660 722 0.209877
r1372 660 661 23.8708
r1373 654 723 0.209877
r1374 654 721 0.209877
r1375 654 658 23.8708
r1376 649 1370 96.0901
r1377 649 650 13.2616
r1378 646 720 0.185185
r1379 646 650 23.8708
r1380 642 719 0.185185
r1381 642 643 23.8708
r1382 636 718 0.185185
r1383 636 640 23.8708
r1384 631 1194 96.0901
r1385 631 632 13.2616
r1386 628 717 0.185185
r1387 628 632 23.8708
r1388 623 1188 96.0901
r1389 623 624 13.2616
r1390 620 716 0.185185
r1391 620 624 23.8708
r1392 615 1350 96.0901
r1393 615 616 13.2616
r1394 612 715 0.185185